STAAD SPACE
* Engineer: Sharief Satyala | Job: CHRA-2502 Pickleball Roof - 3D Global
* Model (job metadata as a plain comment -- two guesses at STAADs JOB
* INFORMATION ENGINEER/JOB NAME syntax were both rejected by a live
* session; not worth a third guess for a purely cosmetic field with zero
* effect on the analysis.)
*
* ================================================================
* GENERATED FILE -- CLOSE-OUT PATCH SET (ROUND 3, line-wrapping fixed in
* ROUND 5). See generate_staad.py docstring for the full ruling history.
* Summary of whats built in below:
*
* D-1: column top node = bottom-chord end node (Y=7.752 / 7.339m),
* K=1.0, no stub. The briefs separate ~8.75/8.34m figures are
* superseded.
*
* D-2: DECK LATERAL-RESTRAINT CREDIT IS DECLARED for the top chord
* (KL_op = 1.0 x panel = 1.474m). Without it the worst trusss top chord
* does not close within the 40-200mm SHS catalog -- this declaration is
* load-bearing. Drawing note (verbatim, engineer-issued):
*
* NOTE: THE STRUCTURAL DECK SHALL BE MECHANICALLY FASTENED TO THE TRUSS
* TOP CHORD AT EVERY CREST (SCREWS AT <= 300 mm CENTRES) PRIOR TO
* IMPOSITION OF ANY SUPERIMPOSED LOAD. THIS FASTENING CONSTITUTES THE
* LATERAL RESTRAINT SYSTEM TO THE TOP CHORD IN COMPRESSION (KL = 1.474
* m) AND FORMS PART OF THE ROOF DIAPHRAGM. ADHESIVE-ONLY, CLIP-ONLY OR
* INTERMITTENT FASTENING SYSTEMS VOID THE TOP-CHORD CAPACITY SHOWN ON
* THESE DRAWINGS AND SHALL NOT BE SUBSTITUTED WITHOUT RECERTIFICATION BY
* THE STRUCTURAL ENGINEER. DECK FASTENER PULL-OUT AND SHEAR CAPACITIES
* SHALL BE CERTIFIED BY THE DECK SUPPLIER FOR BOTH GRAVITY AND NET
* UPLIFT (0.82 kN/m2) CONDITIONS.
*
* D-3 FINAL: braced bays = {1,3,4,6,8} (5 of 8). Plan bracing at the
* BOTTOM-chord level, PARTIAL coverage only -- a single zig-zag chain
* through panel-points {3,5,7,9,11} (4 modules/bay x 5 bays = 20
* diagonals), section 100x100x4 SHS, ~1.60t. Bottom-chord KL_op is
* segment-wise: 2.947m within the braced field (panels 3-10), 4.421m at
* the two unbraced end stretches (panels 0-2, 11-13). Verified against
* the real C4 (0.9DL+1.5WLup) bottom-chord axial diagram (peaks 109.6kN
* at midspan, worst truss) -- max util 0.854, max KL/r 92.5, both within
* limits. ACCEPTANCE MET, scheme ADOPTED.
*
* D-5: ring = 76x76x4 SHS. Plan bracing = 100x100x4 SHS (per D-3 final).
*
* D-6 FINAL: the Md values below (Zp*fy/gamma_m0, capped at
* 1.2*Ze*fy/gamma_m0 per Cl 8.2.1.2) are validated for every SHS in this
* design, including 100x100x4 (the round-2 switch-to-TABLE flag on it is
* withdrawn -- the engineers own hand Md references were the ones in
* error). Md itself is never passed to STAAD; its used directly by
* is800.js/optimize.js for member sizing, outside this file. Section
* TYPE as emitted to STAAD is now TUBE, not PRISMATIC -- see ROUND 8 at
* the top of this script for why (PRISMATIC members are invisible to
* STAADs own steel-design module; TUBE is not).
*
* DESIGN CASE: this file is TAILORED-AT-ACTUAL tributaries (T1=4.572m,
* T2=5.098m, T3=7.121m) -- 6.32t trusses. The envelope variant
* (4.572/5.600/7.372m, 6.62t if invoked) is NOT built into this file; it
* is a documented spare-parts/interchangeability option only.
*
* 25mm midspan camber remains a FABRICATION note only, not built into
* these joint coordinates (analysis uses the theoretical line).
*
* ================================================================
UNIT METER KN
JOINT COORDINATES
1 0.0000 8.7520 0.0000
2 1.4736 8.7225 0.0000
3 2.9471 8.6930 0.0000
4 4.4207 8.6635 0.0000
5 5.8943 8.6340 0.0000
6 7.3679 8.6045 0.0000
7 8.8414 8.5750 0.0000
8 10.3150 8.5455 0.0000
9 11.7886 8.5160 0.0000
10 13.2621 8.4865 0.0000
11 14.7357 8.4570 0.0000
12 16.2093 8.4275 0.0000
13 17.6829 8.3980 0.0000
14 19.1564 8.3685 0.0000
15 20.6300 8.3390 0.0000
16 0.0000 7.7520 0.0000
17 1.4736 7.3381 0.0000
18 2.9471 6.9833 0.0000
19 4.4207 6.6876 0.0000
20 5.8943 6.4511 0.0000
# ... 268 like lines cut
*
MEMBER INCIDENCES
1 1 2
2 2 3
3 3 4
4 4 5
5 5 6
6 6 7
7 7 8
8 8 9
9 9 10
10 10 11
11 11 12
12 12 13
13 13 14
14 14 15
15 16 17
16 17 18
17 18 19
18 19 20
19 20 21
20 21 22
# ... 430 like lines cut
*
DEFINE MATERIAL START
ISOTROPIC STEEL
E 2.05e8
POISSON 0.3
DENSITY 76.9797
ALPHA 1.2e-005
END DEFINE MATERIAL
*
MEMBER PROPERTY
* D-6 CONFIRMED (was flagged Guessing in round 3, now verified against a
* live STAAD session): PY/PZ are NOT valid PRISMATIC keywords --
* STAAD.Pro rejected all 33 PRIS lines with PRISMATIC specification NOT
* valid when they were present. Removed.
*
* TUBE DT/WT/TH was tried (engineers ruling, to make members
* CHECK-CODE-eligible) and CONFIRMED REJECTED by a live STAAD session:
* all 13 TUBE property statements came back MEMBER PROPERTY command
* ignored by program, check syntax. This projects memory of that syntax
* is wrong for this STAAD build (V8i SELECTseries6) -- reverted to
* PRISMATIC (AX/AY/AZ/IX/IY/IZ/YD/ZD), proven clean on this exact build.
* Tradeoff, and it is a real one: PRISMATIC members carry no section
* classification, so STAADs own CHECK CODE cannot design them --
* pass/fail for this file has to come from elsewhere until the real TUBE
* (or table-section) syntax for this build is confirmed, e.g. by
* defining a Tube property via STAADs own GUI dialog and reading back
* what it writes.
*
* 180x180x4 SHS  A=2790mm2 I=14340000mm4 Zp=184000mm3
1 TO 14 47 TO 60 93 TO 106 139 TO 152 PRIS AX 0.002790 AY 0.001376 AZ 0.001376 IX 0.00002868 IY 0.00001434 IZ 0.00001434 YD 0.1800 ZD 0.1800
185 TO 198 231 TO 244 277 TO 290 323 TO 336 PRIS AX 0.002790 AY 0.001376 AZ 0.001376 IX 0.00002868 IY 0.00001434 IZ 0.00001434 YD 0.1800 ZD 0.1800
369 TO 382 PRIS AX 0.002790 AY 0.001376 AZ 0.001376 IX 0.00002868 IY 0.00001434 IZ 0.00001434 YD 0.1800 ZD 0.1800
* 100x100x5 SHS  A=1836mm2 I=2711000mm4 Zp=64590mm3
15 TO 28 61 TO 74 107 TO 120 153 TO 166 PRIS AX 0.001836 AY 0.000900 AZ 0.000900 IX 0.00000542 IY 0.00000271 IZ 0.00000271 YD 0.1000 ZD 0.1000
199 TO 212 245 TO 258 291 TO 304 337 TO 350 PRIS AX 0.001836 AY 0.000900 AZ 0.000900 IX 0.00000542 IY 0.00000271 IZ 0.00000271 YD 0.1000 ZD 0.1000
383 TO 396 PRIS AX 0.001836 AY 0.000900 AZ 0.000900 IX 0.00000542 IY 0.00000271 IZ 0.00000271 YD 0.1000 ZD 0.1000
* 72x72x3.2 SHS  A=854mm2 I=663200mm4 Zp=21800mm3
29 TO 44 75 TO 90 121 TO 136 167 TO 182 PRIS AX 0.000854 AY 0.000420 AZ 0.000420 IX 0.00000133 IY 0.00000066 IZ 0.00000066 YD 0.0720 ZD 0.0720
213 TO 228 259 TO 274 305 TO 320 351 TO 366 PRIS AX 0.000854 AY 0.000420 AZ 0.000420 IX 0.00000133 IY 0.00000066 IZ 0.00000066 YD 0.0720 ZD 0.0720
397 TO 412 PRIS AX 0.000854 AY 0.000420 AZ 0.000420 IX 0.00000133 IY 0.00000066 IZ 0.00000066 YD 0.0720 ZD 0.0720
* 150x150x5 SHS  A=2836mm2 I=9821200mm4 Zp=152970mm3
45 TO 46 91 TO 92 137 TO 138 183 TO 184 PRIS AX 0.002836 AY 0.001400 AZ 0.001400 IX 0.00001964 IY 0.00000982 IZ 0.00000982 YD 0.1500 ZD 0.1500
229 TO 230 275 TO 276 321 TO 322 367 TO 368 PRIS AX 0.002836 AY 0.001400 AZ 0.001400 IX 0.00001964 IY 0.00000982 IZ 0.00000982 YD 0.1500 ZD 0.1500
413 TO 414 PRIS AX 0.002836 AY 0.001400 AZ 0.001400 IX 0.00001964 IY 0.00000982 IZ 0.00000982 YD 0.1500 ZD 0.1500
* 100x100x4 SHS  A=1495mm2 I=2263500mm4 Zp=53300mm3
415 TO 450 PRIS AX 0.001495 AY 0.000736 AZ 0.000736 IX 0.00000453 IY 0.00000226 IZ 0.00000226 YD 0.1000 ZD 0.1000
*
CONSTANTS
MATERIAL STEEL MEMB 1 TO 450
*
MEMBER RELEASE
* Webs/bracing: 99% moment release both ends (never 100% -- per brief).
* Chords: none (rigid/continuous, per brief). Syntax below (MP
* fraction-remaining-fixity) is written from documentation, NOT verified
* against a live STAAD session -- confirm before running.
*
29 TO 44 START MP 0.99
29 TO 44 END MP 0.99
75 TO 90 START MP 0.99
75 TO 90 END MP 0.99
121 TO 136 START MP 0.99
121 TO 136 END MP 0.99
167 TO 182 START MP 0.99
167 TO 182 END MP 0.99
213 TO 228 START MP 0.99
213 TO 228 END MP 0.99
259 TO 274 START MP 0.99
259 TO 274 END MP 0.99
305 TO 320 START MP 0.99
305 TO 320 END MP 0.99
351 TO 366 START MP 0.99
351 TO 366 END MP 0.99
397 TO 412 START MP 0.99
397 TO 412 END MP 0.99
431 TO 450 START MP 0.99
431 TO 450 END MP 0.99
45 TO 46 END MP 0.99
91 TO 92 END MP 0.99
137 TO 138 END MP 0.99
183 TO 184 END MP 0.99
229 TO 230 END MP 0.99
275 TO 276 END MP 0.99
321 TO 322 END MP 0.99
367 TO 368 END MP 0.99
413 TO 414 END MP 0.99
*
SUPPORTS
271 TO 288 PINNED
*
LOAD 1 LOADTYPE DEAD TITLE DL - DECK + SELFWEIGHT
SELFWEIGHT Y -1
MEMBER LOAD
1 UNI GY -1.1430
2 UNI GY -1.1430
3 UNI GY -1.1430
4 UNI GY -1.1430
5 UNI GY -1.1430
6 UNI GY -1.1430
7 UNI GY -1.1430
8 UNI GY -1.1430
9 UNI GY -1.1430
10 UNI GY -1.1430
11 UNI GY -1.1430
12 UNI GY -1.1430
13 UNI GY -1.1430
14 UNI GY -1.1430
47 UNI GY -1.7803
48 UNI GY -1.7803
49 UNI GY -1.7803
50 UNI GY -1.7803
51 UNI GY -1.7803
52 UNI GY -1.7803
# ... 106 like lines cut
*
LOAD 2 LOADTYPE LIVE TITLE LL - ROOF LIVE LOAD
MEMBER LOAD
1 UNI GY -3.4290
2 UNI GY -3.4290
3 UNI GY -3.4290
4 UNI GY -3.4290
5 UNI GY -3.4290
6 UNI GY -3.4290
7 UNI GY -3.4290
8 UNI GY -3.4290
9 UNI GY -3.4290
10 UNI GY -3.4290
11 UNI GY -3.4290
12 UNI GY -3.4290
13 UNI GY -3.4290
14 UNI GY -3.4290
47 UNI GY -5.3407
48 UNI GY -5.3407
49 UNI GY -5.3407
50 UNI GY -5.3407
51 UNI GY -5.3407
52 UNI GY -5.3407
# ... 106 like lines cut
*
LOAD 3 LOADTYPE WIND TITLE WLUP - ROOF UPLIFT (Cpe=-1.0)
MEMBER LOAD
1 UNI GY 2.9718
2 UNI GY 2.9718
3 UNI GY 2.9718
4 UNI GY 2.9718
5 UNI GY 2.9718
6 UNI GY 2.9718
7 UNI GY 2.9718
8 UNI GY 2.9718
9 UNI GY 2.9718
10 UNI GY 2.9718
11 UNI GY 2.9718
12 UNI GY 2.9718
13 UNI GY 2.9718
14 UNI GY 2.9718
47 UNI GY 4.6287
48 UNI GY 4.6287
49 UNI GY 4.6287
50 UNI GY 4.6287
51 UNI GY 4.6287
52 UNI GY 4.6287
# ... 106 like lines cut
*
LOAD 4 LOADTYPE WIND TITLE WLLAT - LATERAL WIND ON COLUMNS (GX)
MEMBER LOAD
45 UNI GX 0.6799
46 UNI GX 0.6436
91 UNI GX 0.6799
92 UNI GX 0.6436
137 UNI GX 0.6799
138 UNI GX 0.6436
183 UNI GX 0.6799
184 UNI GX 0.6436
229 UNI GX 0.6799
230 UNI GX 0.6436
275 UNI GX 0.6799
276 UNI GX 0.6436
321 UNI GX 0.6799
322 UNI GX 0.6436
367 UNI GX 0.6799
368 UNI GX 0.6436
413 UNI GX 0.6799
414 UNI GX 0.6436
*
LOAD COMBINATION 101 C1: 1.5(DL+LL)
1 1.5 2 1.5
LOAD COMBINATION 102 C2: 1.2(DL+LL+WLLAT)
1 1.2 2 1.2 4 1.2
LOAD COMBINATION 103 C3: 1.5(DL+WLLAT)
1 1.5 4 1.5
LOAD COMBINATION 104 C4: 0.9DL+1.5WLUP
1 0.9 3 1.5
LOAD COMBINATION 105 C5: 1.5(DL+WLUP)
1 1.5 3 1.5
*
* P-Delta requested per brief. Round 7 fix: this used to be a plain
* PERFORM ANALYSIS immediately followed by PDELTA ANALYSIS -- a live
* STAAD session threw CONSECUTIVE ANALYSIS COMMANDS, ONLY FIRST USED,
* silently dropping P-Delta and running plain static only. Down to one
* analysis command. Deliberately bare (no PRINT STATICS CHECK appended)
* given two prior guesses at combined syntax on this file were both
* wrong -- reactions/forces remain available via STAADs own
* Post-Processing regardless of this print option.
*
PDELTA ANALYSIS
*
* PARAMETER block moved here, AFTER the analysis commands (round 6 fix):
* a live STAAD.Pro session read PARAMETER 1 placed between LOAD
* COMBINATION 105 and PERFORM ANALYSIS as UNEXPECTED COMMAND IN LOAD
* DATA for case 105 and aborted into DATA-CHECK MODE before any analysis
* ran. PARAMETER blocks belong after analysis in STAADs command
* sequence; the numeric 1 after PARAMETER was also wrong -- the bare
* keyword is correct.
*
PARAMETER
CODE IS800
* FYLD explicit, not left to STAADs default: 250 MPa = 250000 kN/m2
* under the UNIT METER KN in force. Every member in this design is E250
* (see REPORT.md Finding on grade choice) -- if that changes for any
* group, FYLD must be re-declared per member list, not left as one
* blanket value.
*
FYLD 250000 ALL
* Effective lengths, member-specific -- NEVER a blanket value (see audit
* A4). LY/LZ mapping to in-plane vs out-of-plane depends on each members
* local axis orientation as STAAD assigns it by default; VERIFY visually
* (View, Structure, Show Beta Angle or local axes) before trusting which
* is which -- not done here.
*
KY 1.0 ALL
KZ 1.0 ALL
LY 1.474 MEMB 1 TO 14
LZ 1.253 MEMB 1 TO 14
LY 1.474 MEMB 47 TO 60
LZ 1.253 MEMB 47 TO 60
LY 1.474 MEMB 93 TO 106
LZ 1.253 MEMB 93 TO 106
LY 1.474 MEMB 139 TO 152
LZ 1.253 MEMB 139 TO 152
LY 1.474 MEMB 185 TO 198
LZ 1.253 MEMB 185 TO 198
LY 1.474 MEMB 231 TO 244
LZ 1.253 MEMB 231 TO 244
LY 1.474 MEMB 277 TO 290
LZ 1.253 MEMB 277 TO 290
LY 1.474 MEMB 323 TO 336
LZ 1.253 MEMB 323 TO 336
LY 1.474 MEMB 369 TO 382
LZ 1.253 MEMB 369 TO 382
* Bottom chord: KL_op is segment-wise (D-3 final) -- 2.947m within the
* braced field (panels 3-10, where a bracing attachment lands every 2
* panels), 4.421m at the two unbraced end stretches (panels 0-2 and
* 11-13, no bracing attachment there).
*
LY 2.947 MEMB 18 TO 25
LZ 1.253 MEMB 18 TO 25
LY 2.947 MEMB 64 TO 71
LZ 1.253 MEMB 64 TO 71
LY 2.947 MEMB 110 TO 117
LZ 1.253 MEMB 110 TO 117
LY 2.947 MEMB 156 TO 163
LZ 1.253 MEMB 156 TO 163
LY 2.947 MEMB 202 TO 209
LZ 1.253 MEMB 202 TO 209
LY 2.947 MEMB 248 TO 255
LZ 1.253 MEMB 248 TO 255
LY 2.947 MEMB 294 TO 301
LZ 1.253 MEMB 294 TO 301
LY 2.947 MEMB 340 TO 347
LZ 1.253 MEMB 340 TO 347
LY 2.947 MEMB 386 TO 393
LZ 1.253 MEMB 386 TO 393
LY 4.421 MEMB 15 TO 17
LZ 1.253 MEMB 15 TO 17
LY 4.421 MEMB 26 TO 28
LZ 1.253 MEMB 26 TO 28
LY 4.421 MEMB 61 TO 63
LZ 1.253 MEMB 61 TO 63
LY 4.421 MEMB 72 TO 74
LZ 1.253 MEMB 72 TO 74
LY 4.421 MEMB 107 TO 109
LZ 1.253 MEMB 107 TO 109
LY 4.421 MEMB 118 TO 120
LZ 1.253 MEMB 118 TO 120
LY 4.421 MEMB 153 TO 155
LZ 1.253 MEMB 153 TO 155
LY 4.421 MEMB 164 TO 166
LZ 1.253 MEMB 164 TO 166
LY 4.421 MEMB 199 TO 201
LZ 1.253 MEMB 199 TO 201
LY 4.421 MEMB 210 TO 212
LZ 1.253 MEMB 210 TO 212
LY 4.421 MEMB 245 TO 247
LZ 1.253 MEMB 245 TO 247
# ... 14 like lines cut
LY 1.000 MEMB 29
LZ 0.850 MEMB 29
LY 1.000 MEMB 30
LZ 0.850 MEMB 30
LY 1.000 MEMB 75
LZ 0.850 MEMB 75
LY 1.000 MEMB 76
LZ 0.850 MEMB 76
LY 1.000 MEMB 121
LZ 0.850 MEMB 121
LY 1.000 MEMB 122
LZ 0.850 MEMB 122
LY 1.000 MEMB 167
LZ 0.850 MEMB 167
LY 1.000 MEMB 168
LZ 0.850 MEMB 168
LY 1.000 MEMB 213
LZ 0.850 MEMB 213
LY 1.000 MEMB 214
LZ 0.850 MEMB 214
LY 1.000 MEMB 259
LZ 0.850 MEMB 259
LY 1.000 MEMB 260
LZ 0.850 MEMB 260
LY 1.000 MEMB 305
LZ 0.850 MEMB 305
LY 1.000 MEMB 306
LZ 0.850 MEMB 306
LY 1.000 MEMB 351
LZ 0.850 MEMB 351
LY 1.000 MEMB 352
LZ 0.850 MEMB 352
LY 1.000 MEMB 397
LZ 0.850 MEMB 397
LY 1.000 MEMB 398
LZ 0.850 MEMB 398
LY 1.764 MEMB 31
LZ 1.500 MEMB 31
LY 2.280 MEMB 32
LZ 1.938 MEMB 32
# ... 284 like lines cut
* Ring + bracing: ASSUMPTION -- treated as fully laterally restrained by
* the deck/purlins they carry; no separate KL declared beyond the code
* default (span length, K=1.0).
*
TRACK 2 ALL
* CHECK CODE ALL issued below, kept even though sections reverted to
* PRISMATIC after the TUBE rejection above -- left in deliberately
* rather than removed, so STAAD itself reports what it actually does
* with it (design-skip a PRISMATIC member, error, or something else)
* instead of this script guessing that outcome too. TRACK 2 for full
* member-by-member detail if anything is produced at all.
*
CHECK CODE ALL
FINISH
